Questionable use of curly braces in "c1 vin 0 q={v(vin)*(10u+4u)/2+(4u-10u)/4*2*ln(cosh((v(vin)-5)*2/2))}"
    Error: undefined symbol in: "[v](vin)*(10u+4u)/2+(4u-10u)/4*2*ln(cosh((v(vin)-5)*2/2))"
Circuit: * F:\Projects\ModuCard-GPIO-AUX\Simulation\MonteCarlo-DC1.asc

r2: both pins shorted together -- ignoring.
.OP point found by inspection.

Date: Sat Jun 14 10:30:22 2025
Total elapsed time: 0.024 seconds.

tnom = 27
temp = 27
method = trap
totiter = 0
traniter = 0
tranpoints = 0
accept = 0
rejected = 0
matrix size = 2
fillins = 0
solver = Normal
Avg thread counts: 12.0/0.0/0.0/1.3
Matrix Compiler1:       1 opcodes
Matrix Compiler2:       9 opcodes
